/*--------------------------------*- C++ -*----------------------------------*\
| =========                 |                                                 |
| \\      /  F ield         | OpenFOAM: The Open Source CFD Toolbox           |
|  \\    /   O peration     | Version:  5                                     |
|   \\  /    A nd           | Web:      www.OpenFOAM.org                      |
|    \\/     M anipulation  |                                                 |
\*---------------------------------------------------------------------------*/
FoamFile
{
    version     2.0;
    format      ascii;
    class       dictionary;
    location    "system";
    object      controlDict;
}
// * * * * * * * * * * * * * * * * * * * * * * * * * * * * * * * * * * * * * //

application     simpleFoam;

startFrom       startTime;

startTime       0;

stopAt          endTime;

endTime         1500;

deltaT          1;

writeControl    timeStep;

writeInterval   150;

purgeWrite      0;

writeFormat     ascii;

writePrecision  6;

writeCompression off;

timeFormat      general;

timePrecision   6;

runTimeModifiable true;

functions
{
	#includeFunc staticPressure(name=inlet) // Pa
	#includeFunc totalPressureIncompressible(name=inlet) // mˆ2/sˆ2 (or pressure/density - [p/ro] = [ Pa/(kg/m^2) ] = [ (kg/m*s^2) / (kg/m^2) ] )
}

// ************************************************************************* //
