/*--------------------------------*- C++ -*----------------------------------*\
| =========                 |                                                 |
| \\      /  F ield         | OpenFOAM: The Open Source CFD Toolbox           |
|  \\    /   O peration     | Version:  5.x                                   |
|   \\  /    A nd           | Web:      www.OpenFOAM.org                      |
|    \\/     M anipulation  |                                                 |
\*---------------------------------------------------------------------------*/
FoamFile
{
    version     2.0;
    format      ascii;
    class       extendedFeatureEdgeMesh;
    location    "constant/extendedFeatureEdgeMesh";
    object      walls.extendedFeatureEdgeMesh;
}
// * * * * * * * * * * * * * * * * * * * * * * * * * * * * * * * * * * * * * //

// points
8((-0.01 0 0) (-0.01 0.02 0) (0.01 0 0) (0.01 0.02 0) (-0.01 0.02 0.005) (-0.01 0.01 0.01) (0.01 0.02 0.005) (0.01 0.01 0.01))
// edges

16
(
(0 1)
(3 2)
(4 5)
(7 6)
(1 2)
(5 6)
(5 1)
(7 3)
(2 0)
(1 3)
(6 4)
(5 7)
(0 5)
(4 1)
(2 7)
(6 3)
)

// concaveStart mixedStart nonFeatureStart
0 0 8
// internalStart flatStart openStart multipleStart
4 4 8 16
// normals
8((0 0 -1) (0 0 -1) (-0 0.447214 0.894427) (0 0.447214 0.894427) (-1 0 0) (-1 0 0) (-1 0 0) (-1 0 0))
// normal volume types

8
(
0
0
0
0
0
0
0
0
)

// normalDirections

16
(
2(1 -1)
2{1}
2(1 -1)
2{1}
2(1 -1)
2(1 -1)
2(1 -1)
2(1 -1)
1(1)
1(1)
1(1)
1(1)
1(1)
1(1)
1(1)
1(1)
)

// edgeNormals

16
(
2(0 4)
2(1 6)
2(2 5)
2(3 7)
2(0 1)
2(2 3)
2(4 5)
2(6 7)
1(0)
1(1)
1(2)
1(3)
1(4)
1(5)
1(6)
1(7)
)

// featurePointNormals

8
(
2(0 4)
2(0 4)
2(1 6)
2(1 6)
2(2 5)
2(2 5)
2(3 7)
2(3 7)
)

// featurePointEdges

8
(
3(0 8 12)
5(4 0 6 9 13)
4(4 1 8 14)
4(1 7 9 15)
3(2 10 13)
5(5 2 6 11 12)
4(5 3 10 15)
4(3 7 11 14)
)

// regionEdges
8(8 9 10 11 12 13 14 15)


// ************************************************************************* //
